29

N      -6.465011000000000      0.398175000000000     -0.865347000000000
C      -5.557659000000000      0.882049000000000      0.117539000000000
O      -5.921718000000000      1.557020000000000      1.111348000000000
C      -4.154269000000000      0.580652000000000     -0.039000000000000
C      -3.624525000000000     -0.150705000000000     -1.084271000000000
C      -2.315734000000000     -0.447798000000000     -1.255839000000000
C      -1.377552000000000      0.008598000000000     -0.309972000000000
N      -0.085146000000000     -0.205695000000000     -0.353108000000000
C       0.685778000000000      0.278195000000000      0.597965000000000
N       2.120717000000000      0.131310000000000      0.695434000000000
C       2.849990000000000     -0.580954000000000     -0.273229000000000
O       2.313419000000000     -1.123569000000000     -1.263868000000000
C       4.317989000000000     -0.705570000000000     -0.132576000000000
C       5.116233000000000     -0.200268000000000      0.859011000000000
C       6.428326000000000     -0.440278000000000      0.779295000000000
C       6.873445000000000     -1.172584000000000     -0.287137000000000
S       5.437846000000000     -1.502795000000000     -1.146577000000000
S      -0.425132000000000      1.075187000000000      1.613567000000000
C      -1.863895000000000      0.735708000000000      0.738562000000000
C      -3.228001000000000      1.029340000000000      0.891801000000000
H      -6.688990000000000     -0.622564000000000     -0.823074000000000
H      -6.898219000000000      0.992302000000000     -1.595449000000000
H      -4.374361000000000     -0.498642000000000     -1.813369000000000
H      -2.018058000000000     -1.033812000000000     -2.122728000000000
H       2.626526000000000      0.562151000000000      1.500466000000000
H       4.639832000000000      0.382715000000000      1.679771000000000
H       7.156735000000000     -0.073658000000000      1.533258000000000
H       7.918985000000000     -1.458960000000000     -0.502557000000000
H      -3.487551000000000      1.604451000000000      1.750084000000000
